6

C -0.000210000015027801  -0.007481000537348315  0.012922000927956308
N -0.006697000480750625  0.022335001603983735  1.3004320933835565
H 0.9517700683460136  -0.0006280000450713155  -0.5227970375419003
H 0.9146630656817111  -0.10999900789919126  1.8601231335747133
H -0.8222410590450034  -0.11000200789920939  1.8041051295520214
H -0.9486400681212467  -0.0006250000450531842  -0.5206970373910931